        12
 C6H6 mdstep=           0
C     0.140000000000000E+01  0.000000000000000E+00  0.000000000000000E+00
C     0.700000000000002E+00  0.121244000000000E+01  0.000000000000000E+00
C    -0.700000000000002E+00  0.121243000000000E+01  0.000000000000000E+00
C    -0.140000000000000E+01  0.000000000000000E+00  0.000000000000000E+00
C    -0.700000000000002E+00 -0.121244000000000E+01  0.000000000000000E+00
C     0.700000000000002E+00 -0.121243000000000E+01  0.000000000000000E+00
H     0.246000000000001E+01  0.000000000000000E+00  0.000000000000000E+00
H     0.123000000000000E+01  0.213042000000001E+01  0.000000000000000E+00
H    -0.123000000000000E+01  0.213042000000001E+01  0.000000000000000E+00
H    -0.246000000000001E+01  0.000000000000000E+00  0.000000000000000E+00
H    -0.123000000000000E+01 -0.213042000000001E+01  0.000000000000000E+00
H     0.123000000000000E+01 -0.213042000000001E+01  0.000000000000000E+00
        12
 C6H6 mdstep=           1
C     0.140082845184321E+01  0.380633250586956E-06 -0.892274735000551E-17
C     0.700414134493179E+00  0.121315668592462E+01  0.946175654934184E-17
C    -0.700414209403269E+00  0.121314808491214E+01  0.381940059604399E-17
C    -0.140082845184321E+01 -0.380633250594167E-06  0.236403323100815E-17
C    -0.700414134493179E+00 -0.121315668592462E+01 -0.129485806108266E-17
C     0.700414209403269E+00 -0.121314808491214E+01 -0.635571233333113E-17
H     0.246032711858713E+01  0.717898576585215E-08 -0.185687603521164E-17
H     0.123016369422007E+01  0.213070370905172E+01  0.809124858069983E-18
H    -0.123016353344728E+01  0.213070315248580E+01 -0.257493349749152E-17
H    -0.246032711858713E+01 -0.717898575431830E-08  0.385541682405736E-17
H    -0.123016369422007E+01 -0.213070370905172E+01  0.936251996870941E-18
H     0.123016353344728E+01 -0.213070315248580E+01 -0.240856778269798E-18
        12
 C6H6 mdstep=           2
C     0.140154320887517E+01  0.667008659095706E-06 -0.134505219827374E-16
C     0.700771445141422E+00  0.121377505714778E+01  0.205856865784018E-17
C    -0.700771574095601E+00  0.121376759592487E+01 -0.562338901955556E-17
C    -0.140154320887517E+01 -0.667008659252476E-06 -0.424871688118706E-17
C    -0.700771445141422E+00 -0.121377505714778E+01  0.977935507920630E-19
C     0.700771574095602E+00 -0.121376759592487E+01 -0.801112805936595E-17
H     0.246068365727264E+01  0.179376720482316E-07 -0.148684331508706E-17
H     0.123034206493507E+01  0.213101282471391E+01  0.355981087462351E-17
H    -0.123034179211133E+01  0.213101182323179E+01  0.391843929299538E-17
H    -0.246068365727264E+01 -0.179376720207977E-07  0.143929536657099E-16
H    -0.123034206493507E+01 -0.213101282471391E+01  0.784940510505860E-17
H     0.123034179211133E+01 -0.213101182323179E+01  0.943628110913413E-18
        12
 C6H6 mdstep=           3
C     0.140216523739275E+01  0.880096285236135E-06 -0.567084132567641E-17
C     0.701082410540477E+00  0.121431324240081E+01  0.615712934228093E-17
C    -0.701082576292611E+00  0.121430671239431E+01 -0.113419232099202E-17
C    -0.140216523739275E+01 -0.880096285549145E-06 -0.115574973693552E-16
C    -0.701082410540477E+00 -0.121431324240081E+01 -0.137028499004825E-17
C     0.701082576292611E+00 -0.121430671239431E+01 -0.108527687839255E-16
H     0.246105937770717E+01  0.311741925246211E-07  0.278782701315263E-17
H     0.123052999944362E+01  0.213133849322098E+01  0.210326264575887E-17
H    -0.123052965340573E+01  0.213133713767935E+01  0.178155906113439E-17
H    -0.246105937770717E+01 -0.311741925069841E-07  0.634039634152414E-17
H    -0.123052999944362E+01 -0.213133849322098E+01  0.112269475200436E-16
H     0.123052965340573E+01 -0.213133713767935E+01  0.188462866102758E-18
        12
 C6H6 mdstep=           4
C     0.140271129153248E+01  0.103619612995170E-05 -0.865688241120099E-17
C     0.701355403881046E+00  0.121478572810950E+01  0.829280664518459E-17
C    -0.701355592546919E+00  0.121477996139910E+01 -0.205812007724538E-16
C    -0.140271129153248E+01 -0.103619613024057E-05  0.232734202535402E-17
C    -0.701355403881046E+00 -0.121478572810950E+01 -0.107271391915989E-16
C     0.701355592546919E+00 -0.121477996139910E+01 -0.188068530350327E-16
H     0.246144629097538E+01  0.460461212238405E-07 -0.139860220281173E-18
H     0.123072350864553E+01  0.213167380665114E+01  0.423890512644279E-17
H    -0.123072312009050E+01  0.213167217078383E+01  0.629835812794340E-17
H    -0.246144629097538E+01 -0.460461212172433E-07  0.220478771255909E-16
H    -0.123072350864553E+01 -0.213167380665114E+01  0.153984917327805E-16
H     0.123072312009050E+01 -0.213167217078383E+01  0.308154847271454E-18
        12
 C6H6 mdstep=           5
C     0.140319477028263E+01  0.114801835472342E-05 -0.138647908727439E-16
C     0.701597121417732E+00  0.121520409953710E+01  0.766441531592875E-17
C    -0.701597322083338E+00  0.121519896083003E+01 -0.206509921419154E-16
C    -0.140319477028263E+01 -0.114801835497793E-05  0.141123556357693E-17
C    -0.701597121417732E+00 -0.121520409953710E+01  0.998652344601828E-19
C     0.701597322083339E+00 -0.121519896083003E+01 -0.172292303489526E-16
H     0.246183820953315E+01  0.619117505948273E-07 -0.189811014217616E-18
H     0.123091950316726E+01  0.213201341522433E+01  0.108843065142558E-16
H    -0.123091909614844E+01  0.213201155874753E+01  0.300435734070202E-17
H    -0.246183820953315E+01 -0.619117505974272E-07  0.130825808624343E-16
H    -0.123091950316726E+01 -0.213201341522433E+01  0.162409920706275E-16
H     0.123091909614844E+01 -0.213201155874753E+01 -0.452928524155972E-18
        12
 C6H6 mdstep=           6
C     0.140362640284737E+01  0.122549766963467E-05 -0.231317240273990E-16
C     0.701812925085263E+00  0.121557763346725E+01  0.128103486728877E-16
C    -0.701813129375842E+00  0.121557301364933E+01 -0.217238854452335E-16
C    -0.140362640284737E+01 -0.122549766979481E-05  0.996519690989048E-17
C    -0.701812925085263E+00 -0.121557763346725E+01 -0.868266030111880E-18
C     0.701813129375842E+00 -0.121557301364933E+01 -0.234971129407617E-16
H     0.246223038140547E+01  0.782851100511316E-07  0.222627012656892E-17
H     0.123111561060976E+01  0.213235321081246E+01  0.138995286543950E-16
H    -0.123111520379650E+01  0.213235118201705E+01 -0.472919833692340E-18
H    -0.246223038140547E+01 -0.782851100644942E-07  0.164450531029761E-16
H    -0.123111561060976E+01 -0.213235321081246E+01  0.161298445119134E-16
H     0.123111520379650E+01 -0.213235118201705E+01 -0.178233370143311E-17
        12
 C6H6 mdstep=           7
C     0.140401479523067E+01  0.127641278248179E-05 -0.237899912141484E-16
C     0.702007115714595E+00  0.121591377085930E+01 -0.472542004407979E-17
C    -0.702007317375543E+00  0.121590958181877E+01 -0.208565042401815E-16
C    -0.140401479523067E+01 -0.127641278252154E-05  0.999203223164379E-17
C    -0.702007115714595E+00 -0.121591377085930E+01  0.316035119682286E-17
C     0.702007317375543E+00 -0.121590958181877E+01 -0.161153294626791E-16
H     0.246261919395878E+01  0.948012751528244E-07  0.100492453116432E-16
H     0.123131002756905E+01  0.213269007066731E+01  0.482767828239407E-17
H    -0.123130963529332E+01  0.213268790856201E+01 -0.103241503688384E-18
H    -0.246261919395878E+01 -0.948012751732017E-07  0.194971402226943E-16
H    -0.123131002756905E+01 -0.213269007066731E+01  0.188401335503615E-16
H     0.123130963529332E+01 -0.213268790856201E+01 -0.776094330782545E-18
        12
 C6H6 mdstep=           8
C     0.140436686524507E+01  0.130686111630633E-05 -0.914037718128208E-17
C     0.702183150461850E+00  0.121621849300873E+01 -0.305034388227941E-17
C    -0.702183344976756E+00  0.121621466348568E+01 -0.270819377088939E-16
C    -0.140436686524507E+01 -0.130686111638093E-05  0.491961488934435E-17
C    -0.702183150461850E+00 -0.121621849300873E+01 -0.115086390937009E-17
C     0.702183344976756E+00 -0.121621466348568E+01 -0.259796423892430E-16
H     0.246300193550051E+01  0.111189464765905E-06  0.152170869612554E-16
H     0.123150140055331E+01  0.213302165119091E+01  0.174363745389227E-17
H    -0.123150103367079E+01  0.213301938726110E+01  0.500915322413026E-17
H    -0.246300193550051E+01 -0.111189464785234E-06  0.183754015871912E-16
H    -0.123150140055331E+01 -0.213302165119091E+01  0.216087926197016E-16
H     0.123150103367079E+01 -0.213301938726110E+01 -0.470521664446715E-18
        12
 C6H6 mdstep=           9
C     0.140468818820831E+01  0.132162490529414E-05 -0.131628791851988E-16
C     0.702343815586913E+00  0.121649662046963E+01  0.793075001490639E-17
C    -0.702343999842889E+00  0.121649309272980E+01 -0.298582809046514E-16
C    -0.140468818820831E+01 -0.132162490527957E-05  0.585416047486799E-18
C    -0.702343815586913E+00 -0.121649662046963E+01 -0.595636199646305E-17
C     0.702343999842890E+00 -0.121649309272980E+01 -0.281237147872896E-16
H     0.246337660433497E+01  0.127252086387631E-06  0.942809054427533E-17
H     0.123168873061107E+01  0.213334622276876E+01  0.110588122282563E-16
H    -0.123168839720426E+01  0.213334388241207E+01  0.377121700659969E-17
H    -0.246337660433497E+01 -0.127252086391917E-06  0.192072171666013E-16
H    -0.123168873061107E+01 -0.213334622276876E+01  0.258248403079884E-16
H     0.123168839720426E+01 -0.213334388241207E+01 -0.705106442511298E-18
        12
 C6H6 mdstep=          10
C     0.140498327138703E+01  0.132445500653139E-05 -0.138023274167247E-16
C     0.702491363613615E+00  0.121675205035906E+01  0.109958471897224E-16
C    -0.702491535615684E+00  0.121674877752944E+01 -0.230511714165276E-16
C    -0.140498327138703E+01 -0.132445500651970E-05  0.911846964829898E-17
C    -0.702491363613614E+00 -0.121675205035906E+01 -0.426553412540307E-17
C     0.702491535615684E+00 -0.121674877752944E+01 -0.300209309824102E-16
H     0.246374175640014E+01  0.142848359643098E-06  0.881382193858728E-17
H     0.123187129723380E+01  0.213366253798278E+01  0.119054710671636E-16
H    -0.123187100318284E+01  0.213366014167619E+01 -0.187212882679865E-17
H    -0.246374175640014E+01 -0.142848359652877E-06  0.177431123231608E-16
H    -0.123187129723380E+01 -0.213366253798278E+01  0.164784235777027E-16
H     0.123187100318284E+01 -0.213366014167619E+01 -0.204305297677160E-17
        12
 C6H6 mdstep=          11
C     0.140525577173706E+01  0.131829188446948E-05 -0.143815805673044E-16
C     0.702627622146752E+00  0.121698794462680E+01  0.502853549495115E-17
C    -0.702627780778616E+00  0.121698488856177E+01 -0.200303844680216E-16
C    -0.140525577173706E+01 -0.131829188451653E-05  0.121649785337803E-17
C    -0.702627622146752E+00 -0.121698794462680E+01 -0.257273804344706E-17
C     0.702627780778616E+00 -0.121698488856177E+01 -0.348589015458062E-16
H     0.246409638405014E+01  0.157881486585588E-06  0.881844991841847E-17
H     0.123204859781723E+01  0.213396972676902E+01  0.121247293099715E-16
H    -0.123204834726108E+01  0.213396729101486E+01 -0.538952466376963E-17
H    -0.246409638405014E+01 -0.157881486600632E-06  0.264288420829063E-16
H    -0.123204859781723E+01 -0.213396972676902E+01  0.262811850833240E-16
H     0.123204834726108E+01 -0.213396729101486E+01 -0.266511045460066E-17
        12
 C6H6 mdstep=          12
C     0.140550866860150E+01  0.130543829779962E-05 -0.138049119418972E-16
C     0.702754080176383E+00  0.121720687937612E+01 -0.147673952267516E-17
C    -0.702754225002828E+00  0.121720400894845E+01 -0.208310596564513E-16
C    -0.140550866860150E+01 -0.130543829784703E-05 -0.693012600573672E-17
C    -0.702754080176383E+00 -0.121720687937612E+01  0.634825591122484E-17
C     0.702754225002829E+00 -0.121720400894845E+01 -0.351381857238992E-16
H     0.246443981984818E+01  0.172288584204948E-06  0.107433014011397E-16
H     0.123222029961553E+01  0.213426721321102E+01  0.112809390886660E-16
H    -0.123222009532323E+01  0.213426475130204E+01 -0.612979982969314E-17
H    -0.246443981984818E+01 -0.172288584216856E-06  0.270883225590833E-16
H    -0.123222029961553E+01 -0.213426721321102E+01  0.311314578491210E-16
H     0.123222009532323E+01 -0.213426475130204E+01 -0.228145412888214E-17
        12
 C6H6 mdstep=          13
C     0.140574440067560E+01  0.128769464622143E-05 -0.577194851504946E-17
C     0.702871956522970E+00  0.121741096328562E+01 -0.239248318891017E-17
C    -0.702872087628482E+00  0.121740825301759E+01 -0.157771001849497E-16
C    -0.140574440067560E+01 -0.128769464625363E-05  0.131035443523552E-17
C    -0.702871956522970E+00 -0.121741096328562E+01  0.417603594611783E-17
C     0.702872087628482E+00 -0.121740825301759E+01 -0.309616215267910E-16
H     0.246477166036337E+01  0.186032777674221E-06  0.957683557195206E-17
H     0.123238620168696E+01  0.213455464963678E+01  0.870622323545242E-17
H    -0.123238604535557E+01  0.213455217227407E+01 -0.102513803577444E-16
H    -0.246477166036337E+01 -0.186032777694466E-06  0.172914556906498E-16
H    -0.123238620168696E+01 -0.213455464963678E+01  0.256495671964429E-16
H     0.123238604535557E+01 -0.213455217227407E+01 -0.155593830240574E-17
        12
 C6H6 mdstep=          14
C     0.140596497464952E+01  0.126646531155988E-05 -0.722669277055748E-17
C     0.702982254128075E+00  0.121760193154164E+01  0.165816117508004E-17
C    -0.702982371986225E+00  0.121759936050822E+01 -0.145399392259872E-16
C    -0.140596497464952E+01 -0.126646531153048E-05  0.933611181608627E-17
C    -0.702982254128075E+00 -0.121760193154164E+01 -0.298010233434695E-17
C     0.702982371986225E+00 -0.121759936050822E+01 -0.310707309484773E-16
H     0.246509170591834E+01  0.199096989357291E-06  0.139536470816205E-16
H     0.123254620480631E+01  0.213483186451270E+01  0.828553579511418E-17
H    -0.123254609729927E+01  0.213482938030411E+01 -0.131174301968096E-16
H    -0.246509170591834E+01 -0.199096989385642E-06  0.120191618205531E-16
H    -0.123254620480631E+01 -0.213483186451270E+01  0.256309940775799E-16
H     0.123254609729927E+01 -0.213482938030411E+01 -0.194871628985549E-17
        12
 C6H6 mdstep=          15
C     0.140617205141444E+01  0.124284237512051E-05 -0.893292280239894E-17
C     0.703085803132311E+00  0.121778122037037E+01  0.378143647591673E-17
C    -0.703085908500921E+00  0.121777877132017E+01 -0.764826014692720E-17
C    -0.140617205141444E+01 -0.124284237494612E-05  0.337900991887202E-17
C    -0.703085803132310E+00 -0.121778122037037E+01  0.238141667561964E-17
C     0.703085908500921E+00 -0.121777877132017E+01 -0.353771493807846E-16
H     0.246539991302662E+01  0.211479062480297E-06  0.117639185289719E-16
H     0.123270028771480E+01  0.213509882131325E+01  0.130241402658386E-16
H    -0.123270022925221E+01  0.213509633717532E+01 -0.718924353361350E-17
H    -0.246539991302662E+01 -0.211479062515037E-06  0.260301715819572E-17
H    -0.123270028771480E+01 -0.213509882131325E+01  0.250431051862802E-16
H     0.123270022925221E+01 -0.213509633717532E+01 -0.282846834597064E-17
        12
 C6H6 mdstep=          16
C     0.140636701449970E+01  0.121767163129342E-05 -0.134624982456923E-16
C     0.703183295073572E+00  0.121795002620633E+01 -0.163642224865184E-17
C    -0.703183388911214E+00  0.121794768485654E+01  0.242980032699434E-17
C    -0.140636701449970E+01 -0.121767163103691E-05  0.105087875892740E-16
C    -0.703183295073571E+00 -0.121795002620633E+01 -0.884237059484777E-17
C     0.703183388911214E+00 -0.121794768485654E+01 -0.269598992684158E-16
H     0.246569635690759E+01  0.223187936953615E-06  0.138330042934785E-16
H     0.123284848840303E+01  0.213535558610675E+01  0.139368698366043E-16
H    -0.123284847871312E+01  0.213535310758863E+01 -0.801335027807481E-17
H    -0.246569635690759E+01 -0.223187936983421E-06 -0.939535897789560E-17
H    -0.123284848840303E+01 -0.213535558610675E+01  0.301721655423609E-16
H     0.123284847871312E+01 -0.213535310758863E+01 -0.257072797513388E-17
        12
 C6H6 mdstep=          17
C     0.140655102443850E+01  0.119160470681642E-05 -0.289461450242553E-17
C     0.703275310053386E+00  0.121810935269419E+01 -0.101367736807179E-16
C    -0.703275393453378E+00  0.121810710716491E+01  0.132779003111652E-17
C    -0.140655102443850E+01 -0.119160470646827E-05 -0.256544801583016E-16
C    -0.703275310053385E+00 -0.121810935269419E+01  0.880273508201872E-17
C     0.703275393453377E+00 -0.121810710716491E+01 -0.212985468879153E-16
H     0.246598120199350E+01  0.234240656166594E-06  0.942045111957998E-17
H     0.123299088938489E+01  0.213560230205318E+01  0.149295919481708E-16
H    -0.123299092782435E+01  0.213559983359770E+01  0.297488609624969E-17
H    -0.246598120199350E+01 -0.234240656197264E-06 -0.848559905134667E-17
H    -0.123299088938489E+01 -0.213560230205318E+01  0.329648323533829E-16
H     0.123299092782435E+01 -0.213559983359770E+01 -0.195027234981161E-17
        12
 C6H6 mdstep=          18
C     0.140672506198908E+01  0.116514025227451E-05 -0.162531689852485E-16
C     0.703362338334299E+00  0.121826004805515E+01 -0.169692852924265E-18
C    -0.703362412472962E+00  0.121825788841508E+01  0.634872567293942E-17
C    -0.140672506198908E+01 -0.116514025203261E-05 -0.430046895538897E-16
C    -0.703362338334299E+00 -0.121826004805515E+01  0.182265347523228E-16
C     0.703362412472961E+00 -0.121825788841508E+01 -0.181170917258748E-16
H     0.246625467876789E+01  0.244660030600118E-06  0.622539478848578E-17
H     0.123312760613341E+01  0.213583916937763E+01  0.146910126498933E-16
H    -0.123312769178270E+01  0.213583671453181E+01  0.344160289287601E-17
H    -0.246625467876789E+01 -0.244660030628343E-06 -0.612539843488746E-17
H    -0.123312760613341E+01 -0.213583916937763E+01  0.373091078879623E-16
H     0.123312769178270E+01 -0.213583671453181E+01 -0.257233709165485E-17
        12
 C6H6 mdstep=          19
C     0.140688996252794E+01  0.113865651971809E-05 -0.165237311067396E-16
C     0.703444797525831E+00  0.121840283482058E+01 -0.104311113132798E-17
C    -0.703444863622292E+00  0.121840075272195E+01 -0.519503869850622E-17
C    -0.140688996252795E+01 -0.113865651947065E-05 -0.499772637391321E-16
C    -0.703444797525831E+00 -0.121840283482058E+01  0.250037138839575E-16
C     0.703444863622291E+00 -0.121840075272195E+01 -0.222508729936354E-16
H     0.246651706561540E+01  0.254472820481973E-06  0.600368461188197E-17
H     0.123325877801897E+01  0.213606642967761E+01  0.232158185602531E-16
H    -0.123325890975754E+01  0.213606399126237E+01  0.180004958857353E-17
H    -0.246651706561540E+01 -0.254472820511843E-06 -0.424782792545040E-17
H    -0.123325877801897E+01 -0.213606642967761E+01  0.468006340306647E-16
H     0.123325890975754E+01 -0.213606399126237E+01 -0.358605508053916E-17
        12
 C6H6 mdstep=          20
C     0.140704644344697E+01  0.111243714010683E-05 -0.145760659507023E-16
C     0.703523046274559E+00  0.121853833351715E+01 -0.759522744856705E-17
C    -0.703523105559860E+00  0.121853632190210E+01 -0.843609081557308E-17
C    -0.140704644344697E+01 -0.111243713983069E-05 -0.527173833608836E-16
C    -0.703523046274559E+00 -0.121853833351714E+01  0.243082186720414E-16
C     0.703523105559860E+00 -0.121853632190210E+01 -0.368656395009412E-17
H     0.246676867463508E+01  0.263708329142386E-06  0.614578623410069E-17
H     0.123338456122671E+01  0.213628435365795E+01  0.193219994214780E-16
H    -0.123338473779224E+01  0.213628193390504E+01  0.599594617213957E-17
H    -0.246676867463508E+01 -0.263708329150160E-06 -0.118918422622363E-16
H    -0.123338456122671E+01 -0.213628435365795E+01  0.463994871745747E-16
H     0.123338473779224E+01 -0.213628193390504E+01 -0.326826388627795E-17
        12
 C6H6 mdstep=          21
C     0.140719512600394E+01  0.108669152727917E-05 -0.135405919770017E-16
C     0.703597395182630E+00  0.121866708155661E+01 -0.108876698317709E-16
C    -0.703597448876300E+00  0.121866513442072E+01 -0.850960424506578E-17
C    -0.140719512600394E+01 -0.108669152691268E-05 -0.601111839607148E-16
C    -0.703597395182629E+00 -0.121866708155661E+01  0.282885141042482E-16
C     0.703597448876299E+00 -0.121866513442072E+01  0.534430957920459E-17
H     0.246700984058636E+01  0.272397320652424E-06  0.438747724412905E-17
H     0.123350512323813E+01  0.213649323157454E+01  0.166870507715927E-16
H    -0.123350534327298E+01  0.213649083223715E+01  0.812162797097147E-17
H    -0.246700984058636E+01 -0.272397320678545E-06 -0.130003894741947E-16
H    -0.123350512323813E+01 -0.213649323157454E+01  0.455477502849558E-16
H     0.123350534327298E+01 -0.213649083223715E+01 -0.232729046635404E-17
        12
 C6H6 mdstep=          22
C     0.140733655277367E+01  0.106157102697537E-05 -0.151227607222768E-16
C     0.703668115527913E+00  0.121878954832207E+01 -0.388812254524073E-17
C    -0.703668164820496E+00  0.121878766052380E+01 -0.235704923749739E-17
C    -0.140733655277367E+01 -0.106157102658999E-05 -0.538453367441596E-16
C    -0.703668115527913E+00 -0.121878954832207E+01  0.135220651708433E-16
C     0.703668164820496E+00 -0.121878766052380E+01  0.620453722080512E-17
H     0.246724091230913E+01  0.280571193857447E-06  0.234034160638109E-17
H     0.123362063854811E+01  0.213669336581764E+01  0.144480258037040E-16
H    -0.123362090063553E+01  0.213669098825978E+01  0.741865282271432E-17
H    -0.246724091230913E+01 -0.280571193877176E-06 -0.119288895762181E-16
H    -0.123362063854811E+01 -0.213669336581764E+01  0.473918958702588E-16
H     0.123362090063553E+01 -0.213669098825978E+01 -0.418335966931403E-17
        12
 C6H6 mdstep=          23
C     0.140747120160748E+01  0.103718169788814E-05 -0.142803436937141E-16
C     0.703735446239533E+00  0.121890614723574E+01 -0.728817878703327E-17
C    -0.703735492279855E+00  0.121890431434257E+01 -0.113920712389395E-16
C    -0.140747120160748E+01 -0.103718169743260E-05 -0.387863114257932E-16
C    -0.703735446239532E+00 -0.121890614723574E+01  0.971215281377656E-17
C     0.703735492279854E+00 -0.121890431434257E+01  0.371206240964181E-17
H     0.246746224609651E+01  0.288261358244774E-06  0.503797361507500E-17
H     0.123373128535688E+01  0.213688506518360E+01  0.152127426737070E-16
H    -0.123373158804907E+01  0.213688271045231E+01  0.754976773732684E-17
H    -0.246746224609651E+01 -0.288261358262978E-06 -0.906738543407776E-17
H    -0.123373128535688E+01 -0.213688506518360E+01  0.438473103325969E-16
H     0.123373158804907E+01 -0.213688271045231E+01 -0.425771900256620E-17
        12
 C6H6 mdstep=          24
C     0.140759949681896E+01  0.101359442185008E-05 -0.238336012837688E-17
C     0.703799599487344E+00  0.121901724542866E+01 -0.768054983005138E-17
C    -0.703799643373523E+00  0.121901546359281E+01 -0.857444881974158E-17
C    -0.140759949681896E+01 -0.101359442147125E-05 -0.436429266291637E-16
C    -0.703799599487344E+00 -0.121901724542866E+01  0.707716703489484E-17
C     0.703799643373522E+00 -0.121901546359281E+01 -0.585806768935937E-17
H     0.246767420060743E+01  0.295498768913024E-06  0.714613300278513E-17
H     0.123383724303078E+01  0.213706864047789E+01  0.116096696011600E-16
H    -0.123383758487051E+01  0.213706630936185E+01  0.489208440015341E-17
H    -0.246767420060743E+01 -0.295498768921992E-06 -0.513500867579583E-17
H    -0.123383724303078E+01 -0.213706864047789E+01  0.456339474641461E-16
H     0.123383758487051E+01 -0.213706630936185E+01 -0.308463973065076E-17
        12
 C6H6 mdstep=          25
C     0.140772181816619E+01  0.990852896645893E-06  0.621613626320614E-17
C     0.703860765170433E+00  0.121912317150561E+01 -0.522002446257073E-17
C    -0.703860807943834E+00  0.121912143736341E+01 -0.165192206746482E-17
C    -0.140772181816619E+01 -0.990852896230829E-06 -0.510688446836340E-16
C    -0.703860765170433E+00 -0.121912317150561E+01  0.475099166859353E-17
C     0.703860807943834E+00 -0.121912143736341E+01 -0.810420994015081E-17
H     0.246787713299214E+01  0.302313586399467E-06  0.456958445834670E-17
H     0.123393869016858E+01  0.213724440116706E+01  0.110944282660453E-16
H    -0.123393906970569E+01  0.213724209424396E+01  0.133266067234603E-17
H    -0.246787713299214E+01 -0.302313586421151E-06 -0.506824830193793E-17
H    -0.123393869016858E+01 -0.213724440116706E+01  0.467448245782513E-16
H     0.123393906970569E+01 -0.213724209424396E+01 -0.359537645103067E-17
        12
 C6H6 mdstep=          26
C     0.140783850807992E+01  0.968979948451658E-06  0.585252181858061E-17
C     0.703919114529124E+00  0.121922422179361E+01  0.275898649629281E-17
C    -0.703919157170622E+00  0.121922253238389E+01 -0.131723416850978E-17
C    -0.140783850807992E+01 -0.968979948048008E-06 -0.566764606086205E-16
C    -0.703919114529124E+00 -0.121922422179361E+01 -0.418690347548300E-18
C     0.703919157170622E+00 -0.121922253238389E+01 -0.738403254763858E-17
H     0.246807139597219E+01  0.308734934238394E-06 -0.263671629963441E-17
H     0.123403580314440E+01  0.213741265285570E+01  0.153320512618934E-16
H    -0.123403621894818E+01  0.213741037053084E+01  0.748387580683747E-17
H    -0.246807139597219E+01 -0.308734934258488E-06 -0.805317972359214E-17
H    -0.123403580314440E+01 -0.213741265285569E+01  0.492854249486044E-16
H     0.123403621894818E+01 -0.213741037053084E+01 -0.422654663666506E-17
        12
 C6H6 mdstep=          27
C     0.140794987749646E+01  0.947982511096796E-06 -0.434114850360864E-17
C     0.703974803059820E+00  0.121932066538424E+01  0.761744799586861E-17
C    -0.703974846487844E+00  0.121931901808209E+01  0.550271581197456E-19
C    -0.140794987749646E+01 -0.947982510771606E-06 -0.527930328494341E-16
C    -0.703974803059820E+00 -0.121932066538424E+01 -0.241525207785908E-17
C     0.703974846487843E+00 -0.121931901808209E+01 -0.136579013463594E-16
H     0.246825733567012E+01  0.314790732741854E-06 -0.523198719842948E-17
H     0.123412875502483E+01  0.213757369541173E+01  0.181834895252397E-16
H    -0.123412920569322E+01  0.213757143794928E+01  0.130584600694101E-16
H    -0.246825733567012E+01 -0.314790732772822E-06 -0.117275797581413E-16
H    -0.123412875502483E+01 -0.213757369541172E+01  0.551594450568698E-16
H     0.123412920569322E+01 -0.213757143794928E+01 -0.390696807167598E-17
        12
 C6H6 mdstep=          28
C     0.140805621057779E+01  0.927855547692287E-06 -0.717714093957652E-17
C     0.704027972873802E+00  0.121941274821406E+01  0.183472273587553E-16
C    -0.704028017943750E+00  0.121941114067682E+01  0.615159512072964E-18
C    -0.140805621057779E+01 -0.927855547462034E-06 -0.737717389939922E-16
C    -0.704027972873802E+00 -0.121941274821406E+01  0.416310852773513E-17
C     0.704028017943750E+00 -0.121941114067682E+01 -0.336490816184038E-17
H     0.246843529002716E+01  0.320507591916091E-06 -0.816491586510183E-17
H     0.123421771477962E+01  0.213772782159995E+01  0.145916415078457E-16
H    -0.123421819894585E+01  0.213772558914849E+01  0.143145662938027E-16
H    -0.246843529002716E+01 -0.320507591941847E-06 -0.127619634530926E-16
H    -0.123421771477962E+01 -0.213772782159995E+01  0.558445902650155E-16
H     0.123421819894585E+01 -0.213772558914849E+01 -0.263562605162381E-17
