          60
 C60 mdstep=           0
C     0.722893283333335E+01  0.558917683333334E+01  0.769267250000002E+01
C     0.813628283333335E+01  0.515606683333334E+01  0.664391250000002E+01
C     0.634433283333335E+01  0.468240683333334E+01  0.826529250000002E+01
C     0.811985283333335E+01  0.383469683333334E+01  0.621287250000002E+01
C     0.821913283333335E+01  0.353220683333334E+01  0.479521250000001E+01
C     0.825245283333335E+01  0.623438683333335E+01  0.567676250000001E+01
C     0.834749283333335E+01  0.594496683333335E+01  0.432042250000001E+01
C     0.833058283333335E+01  0.456386683333334E+01  0.386993250000001E+01
C     0.455001283333334E+01  0.636852683333335E+01  0.823870250000002E+01
C     0.547449283333334E+01  0.731616683333335E+01  0.764034250000002E+01
C     0.497520283333334E+01  0.508079683333334E+01  0.854436250000002E+01
C     0.678437283333335E+01  0.693520683333335E+01  0.737343250000002E+01
C     0.741676283333335E+01  0.733389683333335E+01  0.612759250000002E+01
C     0.473798283333334E+01  0.811273683333335E+01  0.667355250000002E+01
C     0.534308283333334E+01  0.849424683333335E+01  0.548164250000001E+01
C     0.671217283333335E+01  0.809623683333335E+01  0.520272250000001E+01
C     0.286070283333334E+01  0.414775683333334E+01  0.769456250000002E+01
C     0.241633283333334E+01  0.549355683333334E+01  0.737522250000002E+01
C     0.411173283333334E+01  0.394584683333334E+01  0.826622250000002E+01
C     0.324227283333334E+01  0.657944683333335E+01  0.764135250000002E+01
C     0.335845283333334E+01  0.765724683333335E+01  0.667402250000002E+01
C     0.166957283333333E+01  0.543640683333335E+01  0.612994250000002E+01
C     0.178065283333333E+01  0.646769683333335E+01  0.520450250000001E+01
C     0.264375283333334E+01  0.760274683333335E+01  0.548271250000001E+01
C     0.449553283333334E+01  0.199603683333334E+01  0.681227250000002E+01
C     0.318806283333334E+01  0.220693683333334E+01  0.621495250000002E+01
C     0.494723283333334E+01  0.284607683333334E+01  0.781524250000002E+01
C     0.238860283333334E+01  0.325901683333334E+01  0.664639250000002E+01
C     0.165261283333333E+01  0.405536683333334E+01  0.567938250000001E+01
C     0.328767283333334E+01  0.190390683333333E+01  0.479728250000001E+01
C     0.258336283333334E+01  0.266575683333334E+01  0.387210250000001E+01
C     0.174765283333333E+01  0.376527683333334E+01  0.432301250000001E+01
C     0.719520283333335E+01  0.288696683333334E+01  0.681103250000002E+01
C     0.672311283333335E+01  0.199849683333334E+01  0.576291250000002E+01
C     0.632701283333335E+01  0.330134683333334E+01  0.781459250000002E+01
C     0.540313283333334E+01  0.156275683333333E+01  0.576354250000001E+01
C     0.465674283333334E+01  0.150589683333333E+01  0.451829250000001E+01
C     0.735609283333335E+01  0.239716683333334E+01  0.451718250000001E+01
C     0.664191283333335E+01  0.234277683333334E+01  0.332576250000001E+01
C     0.526239283333334E+01  0.188712683333333E+01  0.332636250000001E+01
C     0.277152283333334E+01  0.440997683333334E+01  0.230715250000001E+01
C     0.321623283333334E+01  0.306417683333334E+01  0.262637250000001E+01
C     0.452629283333334E+01  0.268354683333334E+01  0.235950250000001E+01
C     0.365592283333334E+01  0.531710683333334E+01  0.173483250000000E+01
C     0.280421283333334E+01  0.711260683333335E+01  0.318885250000001E+01
C     0.187990283333333E+01  0.616462683333335E+01  0.378694250000001E+01
C     0.186382283333334E+01  0.484316683333334E+01  0.335581250000001E+01
C     0.367257283333334E+01  0.669831683333335E+01  0.218545250000001E+01
C     0.550369283333334E+01  0.800437683333335E+01  0.318798250000001E+01
C     0.459617283333334E+01  0.843738683333335E+01  0.423659250000001E+01
C     0.327621283333334E+01  0.800141683333335E+01  0.423700250000001E+01
C     0.505217283333334E+01  0.715412683333335E+01  0.218508250000001E+01
C     0.713925283333335E+01  0.585304683333334E+01  0.230578250000001E+01
C     0.761119283333335E+01  0.674167683333335E+01  0.335381250000001E+01
C     0.681147283333335E+01  0.779366683333335E+01  0.378518250000001E+01
C     0.588813283333335E+01  0.605464683333335E+01  0.173425250000000E+01
C     0.545071283333334E+01  0.363160683333334E+01  0.176150250000000E+01
C     0.675832283333335E+01  0.342091683333334E+01  0.235873250000001E+01
C     0.758402283333335E+01  0.450708683333334E+01  0.262481250000001E+01
C     0.502520283333334E+01  0.491931683333334E+01  0.145605250000000E+01
